Circuit: * C:\Users\Vincent\Documents\Xplore\GitHub\AV_HW_workspace\hats\voltmeter\spice\voltmeter.asc

Direct Newton iteration failed to find .op point.  (Use ".option noopiter" to skip.)
Starting Gmin stepping
Gmin = 10
Gmin = 1.07374
Gmin = 0.115292
Gmin = 0.0123794
Gmin = 0.00132923
Gmin = 0.000142725
vernier = 0.5
vernier = 0.25
vernier = 0.125
Gmin = 0.000140217
vernier = 0.0625
vernier = 0.03125
vernier = 0.0416667
Gmin = 0.000133476
vernier = 0.0555555
Gmin = 0.00011829
vernier = 0.074074
vernier = 0.0987653
Gmin = 9.71325e-005
vernier = 0.131687
vernier = 0.175583
Gmin = 7.12071e-005
vernier = 0.23411
Gmin = 4.32242e-005
vernier = 0.312147
vernier = 0.416196
Gmin = 1.93312e-005
vernier = 0.554928
vernier = 0.739903
Gmin = 5.55975e-006
vernier = 0.986537
Gmin = 7.90337e-007
vernier = 1
Gmin = 8.50909e-008
vernier = 0.5
Gmin = 1.42759e-008
vernier = 0.25
vernier = 0.125
vernier = 0.0625
vernier = 0.03125
vernier = 0.015625
vernier = 0.0078125
vernier = 0.00390625
vernier = 0.00195313
vernier = 0.000976563
vernier = 0.000488281
Gmin = 1.42759e-008
Gmin = 0
Gmin stepping failed

Starting source stepping with srcstepmethod=0
Source Step = 3.0303%
vernier = 0.25
Source Step = 7.57576%
Source Step = 15.1515%
Source Step = 22.7273%
Source Step = 30.303%
Source Step = 37.8788%
vernier = 0.375
Source Step = 45.1705%
Source Step = 47.3011%
Source Step = 48.0114%
Source Step = 48.0735%
Source Step = 48.1179%
Source Step = 48.1623%
Source Step = 48.2067%
Source Step = 48.2511%
Source Step = 48.2955%
vernier = 0.00219727
Source Step = 48.362%
Source Step = 48.4286%
Source Step = 48.4952%
Source Step = 48.5618%
Source Step = 48.6284%
vernier = 0.0032959
Source Step = 48.7249%
Source Step = 48.8248%
Source Step = 48.9247%
Source Step = 49.0245%
Source Step = 49.1244%
vernier = 0.00494385
Source Step = 49.2642%
Source Step = 49.4141%
Source Step = 49.5639%
Source Step = 49.7137%
Source Step = 49.8635%
vernier = 0.00741577
Source Step = 50.0658%
Source Step = 50.2905%
Source Step = 50.5152%
Source Step = 50.7399%
Source Step = 50.9646%
vernier = 0.0111237
Source Step = 51.2568%
Source Step = 51.5938%
Source Step = 51.9309%
Source Step = 52.268%
Source Step = 52.6051%
vernier = 0.0166855
Source Step = 53.0264%
Source Step = 53.5321%
Source Step = 54.0377%
Source Step = 54.5433%
Source Step = 55.0489%
vernier = 0.0250282
Source Step = 55.6557%
Source Step = 56.4141%
Source Step = 57.1725%
Source Step = 57.931%
Source Step = 58.6894%
vernier = 0.0375423
Source Step = 59.5616%
Source Step = 60.6992%
Source Step = 61.8369%
Source Step = 62.9745%
Source Step = 64.1122%
vernier = 0.0563135
Source Step = 65.3636%
Source Step = 67.0701%
Source Step = 68.7765%
Source Step = 70.483%
Source Step = 72.1895%
vernier = 0.0844703
Source Step = 73.9813%
Source Step = 76.541%
Source Step = 79.1007%
Source Step = 81.6604%
Source Step = 84.2201%
Source Step = 86.7798%
vernier = 0.126705
Source Step = 90.6193%
Source Step = 93.211%
Source Step = 94.1709%
Source Step = 94.8489%
Source Step = 94.9089%
Source Step = 94.9688%
Source Step = 95.0288%
Source Step = 95.0888%
Source Step = 95.1488%
Source Step = 95.2088%
Source Step = 95.2688%
Source Step = 95.3288%
Source Step = 95.3888%
Source Step = 95.4488%
Source Step = 95.5088%
Source Step = 95.5688%
Source Step = 95.6288%
Source Step = 95.6888%
Source Step = 95.7488%
Source Step = 95.8087%
Source Step = 95.8687%
Source Step = 95.9287%
Source Step = 95.9887%
Source Step = 96.0487%
Source Step = 96.1087%
Source Step = 96.1687%
Source Step = 96.2287%
Source Step = 96.2887%
Source Step = 96.3487%
Source Step = 96.4087%
Source Step = 96.4687%
Source Step = 96.5287%
Source Step = 96.5887%
Source Step = 96.6487%
Source Step = 96.7086%
Source Step = 96.7686%
Source Step = 96.8286%
Source Step = 96.8886%
Source Step = 96.9486%
Source Step = 97.0086%
Source Step = 97.0686%
Source Step = 97.1286%
Source Step = 97.1886%
Source Step = 97.2486%
Source Step = 97.3086%
Source Step = 97.3686%
Source Step = 97.4286%
Source Step = 97.4886%
Source Step = 97.5485%
Source Step = 97.6085%
Source Step = 97.6685%
Source Step = 97.7285%
Source Step = 97.7885%
Source Step = 97.8485%
Source Step = 97.9085%
Source Step = 97.9685%
Source Step = 98.0285%
Source Step = 98.0885%
Source Step = 98.1485%
Source Step = 98.2085%
Source Step = 98.2685%
Source Step = 98.3285%
Source Step = 98.3885%
Source Step = 98.4484%
Source Step = 98.5084%
Starting source stepping with srcstepmethod=1
Source Step = 3.0303%
Source Step = 33.3333%
Source Step = 63.6364%
Source Step = 93.9394%
Source Step = 99.0473%
vernier = 0.00390625
Source stepping failed

Pseudo Transient succeeded in finding the operating point at 8.97163 s.
Semiconductor Device Operating Points:
                        --- Diodes ---
Name:      d1      d:u2:_u43:2 d:u2:_u43:1 d:u1:_u43:2 d:u1:_u43:1
Model:   1n4148    u2:_u43:dvn u2:_u43:dvn u1:_u43:dvn u1:_u43:dvn
Id:     -2.52e-09    1.00e-02    1.00e-02    1.00e-02    1.00e-02
Vd:     -2.39e+00    8.34e-01    8.34e-01    8.34e-01    8.34e-01
Req:     1.26e+11    2.59e+00    2.59e+00    2.59e+00    2.59e+00
CAP:     2.45e-12    0.00e+00    0.00e+00    0.00e+00    0.00e+00



Date: Fri Dec 16 18:03:35 2022
Total elapsed time: 15.859 seconds.

tnom = 27
temp = 27
method = trap
totiter = 756340
traniter = 0
tranpoints = 0
accept = 0
rejected = 18065
matrix size = 265
fillins = 564
solver = Normal
Thread vector: 11.3/6.2[7] 0.0/0.0[7] 4.2/1.7[7] 0.7/0.9[1]  2592/500
Matrix Compiler1: 48.40 KB object code size  8.1/2.4/[2.1]
Matrix Compiler2: 31.86 KB object code size  1.7/1.9/[1.2]

